72

C      -2.4021411262    -0.1776454857    -0.7721381291
C      -3.2668046170    -0.8920955541     0.0794242754
C      -2.5114398753     1.2243742800    -0.8736152779
C      -4.2631806987    -0.2102106797     0.8048253427
C      -3.4999132598     1.9124964848    -0.1370761952
C      -4.3911390182     1.1887673859     0.6840474533
C      -2.5644153831     4.2319600138     0.1051975778
C      -3.6238001752     3.3958768793    -0.2703079556
C      -2.6665671948     5.6150246406    -0.0346429869
C      -4.7880369488     3.9755799703    -0.7928034070
C      -3.8297602922     6.1824474176    -0.5575256398
C      -4.8901901964     5.3575938704    -0.9371504382
H      -1.6543943694     3.7869690320     0.4947917136
H      -1.8357671657     6.2488316340     0.2611994373
H      -5.6168062318     3.3354714649    -1.0781184513
H      -3.9094390152     7.2597581472    -0.6693168087
H      -5.7991356507     5.7896912522    -1.3456548181
C       0.5680612678     2.5635866053    -2.6524222666
C      -0.2428959721     1.9367452541    -1.7075090120
C      -0.0042759287     3.2063338546    -3.7512945232
C      -1.6364100091     1.9478942848    -1.8437493200
C      -1.3927451330     3.2206346865    -3.8975591472
C      -2.2016227941     2.5974369856    -2.9499283580
H       1.6474914838     2.5429008475    -2.5346938657
H       0.2014406997     1.4136105022    -0.8668981544
H       0.6268429928     3.6896724890    -4.4913176336
H      -1.8467842396     3.7145166895    -4.7519133582
H      -3.2813134362     2.6083094802    -3.0621436095
C       0.4555962905    -2.4373007424    -1.8676643989
C       0.2773277779    -2.4600798870    -3.2516111824
C      -0.3990500750    -1.6847848088    -1.0630143234
C      -0.7595858407    -1.7223962487    -3.8258187208
C      -1.4398531001    -0.9383886782    -1.6289951727
C      -1.6091536788    -0.9667044270    -3.0205863278
H       1.2558814835    -3.0132303127    -1.4122222130
H       0.9386596267    -3.0512101582    -3.8784076796
H      -0.2774687754    -1.6910220432     0.0153511794
H      -0.9092741161    -1.7369651287    -4.9016657703
H      -2.4129727122    -0.3911888555    -3.4688192409
C      -2.8343590921    -3.0164069213     1.3628152631
C      -2.7902082990    -4.4073383221     1.4501685626
C      -3.1855266001    -2.3850115853     0.1631908999
C      -3.1027210207    -5.1901555069     0.3379900461
C      -3.4960358957    -3.1813554225    -0.9486842663
C      -3.4568279563    -4.5716338570    -0.8623461754
H      -2.6127984768    -2.4099563721     2.2349687008
H      -2.5167570780    -4.8796138729     2.3892639742
H      -3.0718444189    -6.2737679365     0.4057550503
H      -3.7633012182    -2.7051538057    -1.8866370322
H      -3.7029351368    -5.1721420302    -1.7335134889
C      -5.2156726267    -0.9883112841     1.6589149487
C      -5.2512075470    -0.8029293966     3.0463309922
C      -6.0883662804    -1.9240087805     1.0844419577
C      -6.1310643948    -1.5370241625     3.8410613004
C      -6.9710455695    -2.6556865843     1.8758730336
C      -6.9942397710    -2.4661209662     3.2587868731
H      -4.5895328592    -0.0714559334     3.4987356848
H      -6.0627511490    -2.0867139829     0.0117058327
H      -6.1430002842    -1.3812221244     4.9158987608
H      -7.6384406412    -3.3764082494     1.4120959719
H      -7.6798536440    -3.0379053528     3.8773300538
C      -5.3141817210     2.8187578717     2.3768354496
C      -5.5299790981     1.8707193845     1.3710304852
C      -6.3901213416     3.4340526200     3.0159581241
C      -6.8492694124     1.5553297180     1.0123814957
C      -7.6989220621     3.1129780176     2.6530796205
C      -7.9253298112     2.1722768477     1.6464699690
H      -4.2958288065     3.0760476782     2.6494155022
H      -6.2055229329     4.1658011225     3.7970108058
H      -7.0265938516     0.8118788566     0.2414166162
H      -8.5368795661     3.5921641898     3.1508985347
H      -8.9404160299     1.9152550003     1.3574938599
