32

C        -0.7992698919    0.1311634390   -0.5783081371
C        -1.3439192097   -0.9880665803    0.0464397184
C        -1.5706487422    1.2729159919   -0.8479046280
C        -2.6887018955   -0.9831961110    0.4150424965
C        -2.9297033294    1.2873405471   -0.4522361000
C        -3.4639616567    0.1470249539    0.1684107540
H         0.2371120286    0.1169763905   -0.9021827743
H        -0.7260728561   -1.8620066035    0.2304935585
H        -3.1312540479   -1.8494119454    0.8981726394
H        -4.5033385159    0.1665483330    0.4828651026
C        -3.4345139328    3.7452213594   -0.1973995618
C        -3.8181094289    2.4686847501   -0.6373463178
C        -4.2908265346    4.8342307333   -0.3414595027
C        -5.0841032075    2.3149130526   -1.2232553453
C        -5.5464525935    4.6699837165   -0.9313007253
C        -5.9403621562    3.4061564460   -1.3720916979
H        -2.4588623824    3.8763844413    0.2581523564
H        -3.9784285377    5.8133333117    0.0096825721
H        -5.3886365153    1.3339696085   -1.5774952780
H        -6.2117962152    5.5206327821   -1.0461446752
H        -6.9129109512    3.2684375817   -1.8361129471
C         0.9221936776    3.9447968481   -1.8607871977
C         0.2983244074    2.9132386705   -1.1590693498
C         0.3251828176    4.4723323111   -3.0061785295
C        -0.9333219585    2.3961258177   -1.5866366199
C        -0.8979942905    3.9597637149   -3.4457410748
C        -1.5219197495    2.9319071383   -2.7430999437
H         1.8717966733    4.3380913907   -1.5094763269
H         0.7567189522    2.5105112765   -0.2604104473
H         0.8085494843    5.2763403765   -3.5532915807
H        -1.3663744464    4.3605955330   -4.3399919080
H        -2.4729849954    2.5370807240   -3.0854585292
